<?xml version="1.0" encoding="UTF-8"?>

<!-- generated on 05/22/20 19:17:57 by Eclipse SUMO netedit Version 1.5.0
<configuration xmlns:xsi="http://www.w3.org/2001/XMLSchema-instance" xsi:noNamespaceSchemaLocation="http://sumo.dlr.de/xsd/netconvertConfiguration.xsd">

    <input>
        <sumo-net-file value="D:\st\sumo\beijingwangjing\wj.net.xml.clean.xiaoqu.name.tl.net.xml"/>
    </input>

    <output>
        <output-file value="D:\st\sumo\beijingwangjing\wj.net.xml.clean.xiaoqu.name.tl.net.xml"/>
    </output>

    <processing>
        <geometry.min-radius.fix.railways value="false"/>
        <geometry.max-grade.fix value="false"/>
        <offset.disable-normalization value="true"/>
        <lefthand value="false"/>
    </processing>

    <junctions>
        <no-turnarounds value="true"/>
        <junctions.corner-detail value="5"/>
        <junctions.limit-turn-speed value="5.5"/>
        <rectangular-lane-cut value="false"/>
    </junctions>

    <pedestrian>
        <walkingareas value="false"/>
    </pedestrian>

    <report>
        <aggregate-warnings value="5"/>
    </report>

</configuration>
-->

<net version="1.3" junctionCornerDetail="5" limitTurnSpeed="5.50" xmlns:xsi="http://www.w3.org/2001/XMLSchema-instance" xsi:noNamespaceSchemaLocation="http://sumo.dlr.de/xsd/net_file.xsd">

    <location netOffset="-453088.32,-4425466.14" convBoundary="-285.21,-62.07,2882.19,3899.28" origBoundary="116.268931,39.793594,117.125669,40.145385" projParameter="+proj=utm +zone=50 +ellps=WGS84 +datum=WGS84 +units=m +no_defs"/>

    <type id="highway.bridleway" priority="1" numLanes="1" speed="2.78" allow="pedestrian" oneway="1" width="2.00"/>
    <type id="highway.bus_guideway" priority="1" numLanes="1" speed="27.78" allow="bus" oneway="1"/>
    <type id="highway.cycleway" priority="1" numLanes="1" speed="8.33" allow="bicycle" oneway="0" width="1.00"/>
    <type id="highway.footway" priority="1" numLanes="1" speed="2.78" allow="pedestrian" oneway="1" width="2.00"/>
    <type id="highway.ford" priority="1" numLanes="1" speed="2.78" allow="army" oneway="0"/>
    <type id="highway.living_street" priority="2" numLanes="1" speed="2.78" disallow="tram rail_urban rail rail_electric rail_fast ship" oneway="0"/>
    <type id="highway.motorway" priority="14" numLanes="2" speed="39.44" allow="private emergency authority army vip passenger hov taxi bus coach delivery truck trailer motorcycle evehicle custom1 custom2" oneway="1"/>
    <type id="highway.motorway_link" priority="9" numLanes="1" speed="22.22" allow="private emergency authority army vip passenger hov taxi bus coach delivery truck trailer motorcycle evehicle custom1 custom2" oneway="1"/>
    <type id="highway.path" priority="1" numLanes="1" speed="2.78" allow="pedestrian bicycle" oneway="1" width="2.00"/>
    <type id="highway.pedestrian" priority="1" numLanes="1" speed="2.78" allow="pedestrian" oneway="1" width="2.00"/>
    <type id="highway.primary" priority="12" numLanes="2" speed="27.78" disallow="tram rail_urban rail rail_electric rail_fast ship" oneway="0"/>
    <type id="highway.primary_link" priority="7" numLanes="1" speed="22.22" disallow="tram rail_urban rail rail_electric rail_fast ship" oneway="0"/>
    <type id="highway.raceway" priority="15" numLanes="2" speed="83.33" allow="vip" oneway="0"/>
    <type id="highway.residential" priority="3" numLanes="1" speed="13.89" disallow="tram rail_urban rail rail_electric rail_fast ship" oneway="0"/>
    <type id="highway.secondary" priority="11" numLanes="1" speed="27.78" disallow="tram rail_urban rail rail_electric rail_fast ship" oneway="0"/>
    <type id="highway.secondary_link" priority="6" numLanes="1" speed="22.22" disallow="tram rail_urban rail rail_electric rail_fast ship" oneway="0"/>
    <type id="highway.service" priority="1" numLanes="1" speed="5.56" allow="pedestrian delivery bicycle" oneway="0"/>
    <type id="highway.stairs" priority="1" numLanes="1" speed="1.39" allow="pedestrian" oneway="1" width="2.00"/>
    <type id="highway.step" priority="1" numLanes="1" speed="1.39" allow="pedestrian" oneway="1" width="2.00"/>
    <type id="highway.steps" priority="1" numLanes="1" speed="1.39" allow="pedestrian" oneway="1" width="2.00"/>
    <type id="highway.tertiary" priority="10" numLanes="1" speed="22.22" disallow="tram rail_urban rail rail_electric rail_fast ship" oneway="0"/>
    <type id="highway.tertiary_link" priority="5" numLanes="1" speed="22.22" disallow="tram rail_urban rail rail_electric rail_fast ship" oneway="0"/>
    <type id="highway.track" priority="1" numLanes="1" speed="5.56" disallow="tram rail_urban rail rail_electric rail_fast ship" oneway="0"/>
    <type id="highway.trunk" priority="13" numLanes="2" speed="27.78" disallow="pedestrian bicycle tram rail_urban rail rail_electric rail_fast ship" oneway="0"/>
    <type id="highway.trunk_link" priority="8" numLanes="1" speed="22.22" disallow="pedestrian bicycle tram rail_urban rail rail_electric rail_fast ship" oneway="0"/>
    <type id="highway.unclassified" priority="4" numLanes="1" speed="13.89" disallow="tram rail_urban rail rail_electric rail_fast ship" oneway="0"/>
    <type id="highway.unsurfaced" priority="1" numLanes="1" speed="8.33" disallow="tram rail_urban rail rail_electric rail_fast ship" oneway="0"/>
    <type id="railway.highspeed" priority="21" numLanes="1" speed="69.44" allow="rail_fast" oneway="1"/>
    <type id="railway.light_rail" priority="19" numLanes="1" speed="27.78" allow="rail_urban" oneway="1"/>
    <type id="railway.preserved" priority="16" numLanes="1" speed="27.78" allow="rail" oneway="1"/>
    <type id="railway.rail" priority="20" numLanes="1" speed="44.44" allow="rail" oneway="1"/>
    <type id="railway.subway" priority="18" numLanes="1" speed="27.78" allow="rail_urban" oneway="1"/>
    <type id="railway.tram" priority="17" numLanes="1" speed="13.89" allow="tram" oneway="1"/>

    <edge id=":1239554868_0" function="internal">
        <lane id=":1239554868_0_0" index="0" disallow="tram rail_urban rail rail_electric rail_fast ship" speed="22.22" length="8.21" shape="1182.35,627.62 1184.01,625.88 1184.87,624.42 1185.73,622.97 1187.38,621.22"/>
        <lane id=":1239554868_0_1" index="1" disallow="tram rail_urban rail rail_electric rail_fast ship" speed="22.22" length="8.21" shape="1184.42,630.06 1186.08,628.32 1186.95,626.86 1187.81,625.40 1189.47,623.65"/>
        <lane id=":1239554868_0_2" index="2" disallow="tram rail_urban rail rail_electric rail_fast ship" speed="22.22" length="8.21" shape="1184.42,630.06 1186.41,628.69 1187.99,628.07 1189.56,627.45 1191.55,626.07"/>
    </edge>
    <edge id=":1239554946_0" function="internal">
        <lane id=":1239554946_0_0" index="0" disallow="tram rail_urban rail rail_electric rail_fast ship" speed="22.22" length="0.27" shape="1343.64,1090.62 1343.47,1090.42"/>
    </edge>
    <edge id=":1239554946_1" function="internal">
        <lane id=":1239554946_1_0" index="0" disallow="tram rail_urban rail rail_electric rail_fast ship" speed="22.22" length="0.31" shape="1345.86,1088.30 1346.07,1088.54"/>
    </edge>
    <edge id=":1239554964_0" function="internal">
        <lane id=":1239554964_0_0" index="0" disallow="tram rail_urban rail rail_electric rail_fast ship" speed="27.78" length="0.30" shape="1609.88,1069.57 1610.10,1069.37"/>
        <lane id=":1239554964_0_1" index="1" disallow="tram rail_urban rail rail_electric rail_fast ship" speed="27.78" length="0.30" shape="1611.96,1072.00 1612.18,1071.80"/>
        <lane id=":1239554964_0_2" index="2" disallow="tram rail_urban rail rail_electric rail_fast ship" speed="27.78" length="0.30" shape="1614.04,1074.43 1614.27,1074.23"/>
    </edge>
    <edge id=":1281142636_0" function="internal">
        <lane id=":1281142636_0_0" index="0" disallow="tram rail_urban rail rail_electric rail_fast ship" speed="6.95" length="10.37" shape="1134.86,2482.23 1132.39,2482.55 1130.57,2483.82 1129.39,2486.01 1128.86,2489.14"/>
    </edge>
    <edge id=":1281142636_1" function="internal">
        <lane id=":1281142636_1_0" index="0" disallow="tram rail_urban rail rail_electric rail_fast ship" speed="22.22" length="14.46" shape="1134.86,2482.23 1130.60,2481.76 1127.73,2481.06 1124.86,2480.34 1120.60,2479.84"/>
        <lane id=":1281142636_1_1" index="1" disallow="tram rail_urban rail rail_electric rail_fast ship" speed="22.22" length="14.46" shape="1135.02,2479.03 1130.77,2478.57 1127.91,2477.86 1125.04,2477.15 1120.80,2476.64"/>
    </edge>
    <edge id=":1281142636_3" function="internal">
        <lane id=":1281142636_3_0" index="0" disallow="tram rail_urban rail rail_electric rail_fast ship" speed="6.51" length="9.02" shape="1125.66,2488.95 1125.46,2486.49 1124.51,2484.68 1122.83,2483.53 1120.41,2483.03"/>
    </edge>
    <edge id=":1346794703_0" function="internal">
        <lane id=":1346794703_0_0" index="0" disallow="tram rail_urban rail rail_electric rail_fast ship" speed="22.22" length="7.94" shape="1412.12,1170.17 1406.99,1164.11"/>
    </edge>
    <edge id=":1346794703_1" function="internal">
        <lane id=":1346794703_1_0" index="0" disallow="tram rail_urban rail rail_electric rail_fast ship" speed="22.22" length="8.41" shape="1409.42,1162.02 1411.41,1163.57 1413.25,1164.04 1415.08,1164.51 1417.04,1166.09"/>
        <lane id=":1346794703_1_1" index="1" disallow="tram rail_urban rail rail_electric rail_fast ship" speed="22.22" length="8.41" shape="1409.42,1162.02 1414.58,1168.13"/>
    </edge>
    <edge id=":1346794720_0" function="internal">
        <lane id=":1346794720_0_0" index="0" disallow="tram rail_urban rail rail_electric rail_fast ship" speed="22.22" length="10.30" shape="541.12,1656.70 540.95,1667.03"/>
        <lane id=":1346794720_0_1" index="1" disallow="tram rail_urban rail rail_electric rail_fast ship" speed="22.22" length="10.30" shape="537.92,1656.66 537.75,1666.95"/>
        <lane id=":1346794720_0_2" index="2" disallow="tram rail_urban rail rail_electric rail_fast ship" speed="22.22" length="10.30" shape="534.72,1656.61 534.55,1666.88"/>
    </edge>
    <edge id=":1346794720_3" function="internal">
        <lane id=":1346794720_3_0" index="0" disallow="tram rail_urban rail rail_electric rail_fast ship" speed="5.35" length="7.94" shape="534.72,1656.61 534.52,1659.94 534.04,1662.13 533.27,1663.18 532.21,1663.08"/>
    </edge>
    <edge id=":1346794720_4" function="internal">
        <lane id=":1346794720_4_0" index="0" disallow="tram rail_urban rail rail_electric rail_fast ship" speed="7.68" length="8.20" shape="533.76,1660.29 535.54,1661.55 536.80,1663.09 537.54,1664.89 537.75,1666.95"/>
    </edge>
    <edge id=":1346794720_5" function="internal">
        <lane id=":1346794720_5_0" index="0" disallow="tram rail_urban rail rail_electric rail_fast ship" speed="7.02" length="6.75" shape="533.76,1660.29 534.16,1660.89 534.42,1662.19 534.55,1664.19 534.55,1666.88"/>
    </edge>
    <edge id=":1346794720_6" function="internal">
        <lane id=":1346794720_6_0" index="0" disallow="tram rail_urban rail rail_electric rail_fast ship" speed="3.65" length="4.67" shape="533.76,1660.29 534.42,1661.57 534.38,1662.46 533.65,1662.97 532.21,1663.08"/>
    </edge>
    <edge id=":1346797527_0" function="internal">
        <lane id=":1346797527_0_0" index="0" disallow="tram rail_urban rail rail_electric rail_fast ship" speed="7.91" length="10.31" shape="986.74,1638.49 989.76,1638.63 992.25,1638.08 994.22,1636.85 995.67,1634.92"/>
    </edge>
    <edge id=":1346797527_1" function="internal">
        <lane id=":1346797527_1_0" index="0" disallow="tram rail_urban rail rail_electric rail_fast ship" speed="6.16" length="9.05" shape="990.22,1648.13 990.69,1645.62 990.18,1643.71 988.71,1642.38 986.27,1641.65"/>
    </edge>
    <edge id=":1346797527_2" function="internal">
        <lane id=":1346797527_2_0" index="0" disallow="tram rail_urban rail rail_electric rail_fast ship" speed="27.78" length="13.81" shape="990.22,1648.13 991.57,1644.10 992.56,1641.36 993.74,1638.70 995.67,1634.92"/>
        <lane id=":1346797527_2_1" index="1" disallow="tram rail_urban rail rail_electric rail_fast ship" speed="27.78" length="13.81" shape="993.26,1649.15 994.56,1645.26 995.51,1642.62 996.65,1640.05 998.51,1636.40"/>
        <lane id=":1346797527_2_2" index="2" disallow="tram rail_urban rail rail_electric rail_fast ship" speed="27.78" length="13.81" shape="996.29,1650.18 997.54,1646.43 998.45,1643.88 999.55,1641.41 1001.34,1637.89"/>
    </edge>
    <edge id=":1346798140_0" function="internal">
        <lane id=":1346798140_0_0" index="0" disallow="tram rail_urban rail rail_electric rail_fast ship" speed="7.85" length="12.37" shape="1157.38,880.56 1155.33,879.11 1152.78,878.84 1149.72,879.73 1146.16,881.79"/>
    </edge>
    <edge id=":1346798140_1" function="internal">
        <lane id=":1346798140_1_0" index="0" disallow="tram rail_urban rail rail_electric rail_fast ship" speed="22.22" length="14.65" shape="1157.38,880.56 1147.87,869.42"/>
    </edge>
    <edge id=":1346798140_2" function="internal">
        <lane id=":1346798140_2_0" index="0" disallow="tram rail_urban rail rail_electric rail_fast ship" speed="3.65" length="2.34" shape="1157.38,880.56 1157.18,879.13 1157.52,878.30"/>
    </edge>
    <edge id=":1346798140_8" function="internal">
        <lane id=":1346798140_8_0" index="0" disallow="tram rail_urban rail rail_electric rail_fast ship" speed="3.65" length="2.34" shape="1157.52,878.30 1158.38,878.07 1159.77,878.44"/>
    </edge>
    <edge id=":1346798140_3" function="internal">
        <lane id=":1346798140_3_0" index="0" disallow="tram rail_urban rail rail_electric rail_fast ship" speed="22.22" length="14.54" shape="1150.33,867.38 1159.77,878.44"/>
    </edge>
    <edge id=":1346798140_4" function="internal">
        <lane id=":1346798140_4_0" index="0" disallow="tram rail_urban rail rail_electric rail_fast ship" speed="8.53" length="5.32" shape="1150.33,867.38 1152.34,871.03 1152.33,872.19"/>
    </edge>
    <edge id=":1346798140_5" function="internal">
        <lane id=":1346798140_5_0" index="0" disallow="tram rail_urban rail rail_electric rail_fast ship" speed="3.65" length="2.34" shape="1150.33,867.38 1150.48,868.82 1150.12,869.63"/>
    </edge>
    <edge id=":1346798140_9" function="internal">
        <lane id=":1346798140_9_0" index="0" disallow="tram rail_urban rail rail_electric rail_fast ship" speed="8.53" length="12.02" shape="1152.33,872.19 1152.31,874.64 1150.25,878.23 1146.16,881.79"/>
    </edge>
    <edge id=":1346798140_10" function="internal">
        <lane id=":1346798140_10_0" index="0" disallow="tram rail_urban rail rail_electric rail_fast ship" speed="3.65" length="2.34" shape="1150.12,869.63 1149.25,869.84 1147.87,869.42"/>
    </edge>
    <edge id=":1346798140_6" function="internal">
        <lane id=":1346798140_6_0" index="0" disallow="tram rail_urban rail rail_electric rail_fast ship" speed="6.33" length="9.04" shape="1144.34,879.15 1146.17,877.45 1146.96,875.60 1146.70,873.60 1145.40,871.46"/>
    </edge>
    <edge id=":1346798140_7" function="internal">
        <lane id=":1346798140_7_0" index="0" disallow="tram rail_urban rail rail_electric rail_fast ship" speed="9.13" length="17.06" shape="1144.34,879.15 1149.04,876.52 1153.18,875.53 1156.75,876.16 1159.77,878.44"/>
    </edge>
    <edge id=":1356587825_0" function="internal">
        <lane id=":1356587825_0_0" index="0" disallow="tram rail_urban rail rail_electric rail_fast ship" speed="22.22" length="1.33" shape="307.72,3552.49 307.10,3552.28 306.68,3552.10 306.29,3551.88 305.74,3551.52"/>
        <lane id=":1356587825_0_1" index="1" disallow="tram rail_urban rail rail_electric rail_fast ship" speed="22.22" length="1.33" shape="308.72,3549.45 308.35,3549.32 308.10,3549.22 307.87,3549.08 307.54,3548.87"/>
        <lane id=":1356587825_0_2" index="2" disallow="tram rail_urban rail rail_electric rail_fast ship" speed="22.22" length="1.33" shape="309.73,3546.41 309.60,3546.37 309.52,3546.33 309.44,3546.29 309.33,3546.22"/>
    </edge>
    <edge id=":1357275963_0" function="internal">
        <lane id=":1357275963_0_0" index="0" disallow="tram rail_urban rail rail_electric rail_fast ship" speed="22.22" length="0.34" shape="90.19,2439.21 90.17,2438.62"/>
        <lane id=":1357275963_0_1" index="1" disallow="tram rail_urban rail rail_electric rail_fast ship" speed="22.22" length="0.34" shape="93.38,2439.03 93.37,2438.61"/>
        <lane id=":1357275963_0_2" index="2" disallow="tram rail_urban rail rail_electric rail_fast ship" speed="22.22" length="0.34" shape="96.58,2438.85 96.57,2438.59"/>
        <lane id=":1357275963_0_3" index="3" disallow="tram rail_urban rail rail_electric rail_fast ship" speed="22.22" length="0.34" shape="99.77,2438.67 99.77,2438.58"/>
    </edge>
    <edge id=":1360092411_0" function="internal">
        <lane id=":1360092411_0_0" index="0" disallow="tram rail_urban rail rail_electric rail_fast ship" speed="22.22" length="8.18" shape="66.48,1736.55 66.16,1734.20 65.56,1732.65 64.93,1731.10 64.54,1728.75"/>
        <lane id=":1360092411_0_1" index="1" disallow="tram rail_urban rail rail_electric rail_fast ship" speed="22.22" length="8.18" shape="69.68,1736.46 69.36,1734.08 68.75,1732.51 68.12,1730.94 67.74,1728.56"/>
        <lane id=":1360092411_0_2" index="2" disallow="tram rail_urban rail rail_electric rail_fast ship" speed="22.22" length="8.18" shape="72.87,1736.37 72.56,1733.97 71.95,1732.37 71.32,1730.78 70.93,1728.37"/>
    </edge>
    <edge id=":1360092412_0" function="internal">
        <lane id=":1360092412_0_0" index="0" speed="13.89" length="20.48" shape="1172.11,3863.79 1166.44,3861.78 1162.41,3860.67 1158.26,3860.23 1152.27,3860.23"/>
        <lane id=":1360092412_0_1" index="1" speed="13.89" length="20.48" shape="1172.31,3860.47 1166.61,3858.48 1162.48,3857.41 1158.24,3857.01 1152.20,3857.03"/>
    </edge>
    <edge id=":1360092412_2" function="internal">
        <lane id=":1360092412_2_0" index="0" disallow="tram rail_urban rail rail_electric rail_fast ship" speed="10.89" length="20.78" shape="1172.31,3860.47 1167.28,3857.93 1163.75,3854.47 1161.71,3850.07 1161.17,3844.75"/>
    </edge>
    <edge id=":1360092412_3" function="internal">
        <lane id=":1360092412_3_0" index="0" speed="4.98" length="9.54" shape="1172.31,3860.47 1169.97,3858.68 1169.26,3857.00 1170.17,3855.42 1172.72,3853.95"/>
    </edge>
    <edge id=":1360092412_4" function="internal">
        <lane id=":1360092412_4_0" index="0" disallow="tram rail_urban rail rail_electric rail_fast ship" speed="6.49" length="8.99" shape="1167.57,3844.97 1167.83,3847.43 1168.81,3849.22 1170.50,3850.32 1172.92,3850.75"/>
    </edge>
    <edge id=":1360092412_5" function="internal">
        <lane id=":1360092412_5_0" index="0" disallow="tram rail_urban rail rail_electric rail_fast ship" speed="10.55" length="24.34" shape="1167.57,3844.97 1166.41,3851.53 1163.48,3856.26 1158.76,3859.16 1152.27,3860.23"/>
    </edge>
    <edge id=":1360092412_6" function="internal">
        <lane id=":1360092412_6_0" index="0" disallow="tram rail_urban rail rail_electric rail_fast ship" speed="9.46" length="19.39" shape="1164.37,3844.86 1163.45,3850.09 1161.12,3853.87 1157.37,3856.18 1152.20,3857.03"/>
    </edge>
    <edge id=":1360092412_7" function="internal">
        <lane id=":1360092412_7_0" index="0" disallow="tram rail_urban rail rail_electric rail_fast ship" speed="3.65" length="4.67" shape="1164.37,3844.86 1163.53,3846.03 1162.71,3846.40 1161.93,3845.97 1161.17,3844.75"/>
    </edge>
    <edge id=":1360092412_8" function="internal">
        <lane id=":1360092412_8_0" index="0" disallow="tram rail_urban rail rail_electric rail_fast ship" speed="7.58" length="12.09" shape="1152.14,3853.83 1154.57,3853.21 1156.35,3851.47 1157.49,3848.61 1157.97,3844.63"/>
    </edge>
    <edge id=":1360092412_9" function="internal">
        <lane id=":1360092412_9_0" index="0" speed="13.89" length="20.58" shape="1152.14,3853.83 1172.72,3853.95"/>
    </edge>
    <edge id=":1360092413_0" function="internal">
        <lane id=":1360092413_0_0" index="0" disallow="tram rail_urban rail rail_electric rail_fast ship" speed="22.22" length="8.21" shape="57.89,1616.25 57.50,1613.89 56.85,1612.33 56.20,1610.78 55.79,1608.41"/>
        <lane id=":1360092413_0_1" index="1" disallow="tram rail_urban rail rail_electric rail_fast ship" speed="22.22" length="8.21" shape="61.09,1616.06 60.69,1613.69 60.05,1612.13 59.39,1610.56 58.98,1608.19"/>
        <lane id=":1360092413_0_2" index="2" disallow="tram rail_urban rail rail_electric rail_fast ship" speed="22.22" length="8.21" shape="64.28,1615.87 63.89,1613.49 63.24,1611.92 62.59,1610.35 62.17,1607.97"/>
        <lane id=":1360092413_0_3" index="3" disallow="tram rail_urban rail rail_electric rail_fast ship" speed="22.22" length="8.21" shape="64.28,1615.87 64.39,1613.45 64.84,1611.81 65.28,1610.17 65.36,1607.75"/>
    </edge>
    <edge id=":1360092414_0" function="internal">
        <lane id=":1360092414_0_0" index="0" disallow="tram rail_urban rail rail_electric rail_fast ship" speed="22.22" length="0.29" shape="89.10,2312.95 89.09,2312.61"/>
        <lane id=":1360092414_0_1" index="1" disallow="tram rail_urban rail rail_electric rail_fast ship" speed="22.22" length="0.29" shape="92.30,2312.77 92.28,2312.47"/>
        <lane id=":1360092414_0_2" index="2" disallow="tram rail_urban rail rail_electric rail_fast ship" speed="22.22" length="0.29" shape="95.49,2312.59 95.48,2312.34"/>
    </edge>
    <edge id=":1360092416_0" function="internal">
        <lane id=":1360092416_0_0" index="0" disallow="tram rail_urban rail rail_electric rail_fast ship" speed="22.22" length="8.19" shape="46.40,1302.26 46.14,1299.86 45.59,1298.25 45.04,1296.65 44.81,1294.25"/>
        <lane id=":1360092416_0_1" index="1" disallow="tram rail_urban rail rail_electric rail_fast ship" speed="22.22" length="8.19" shape="49.60,1302.24 49.34,1299.86 48.79,1298.26 48.24,1296.66 48.01,1294.28"/>
    </edge>
    <edge id=":1361300422_0" function="internal">
        <lane id=":1361300422_0_0" index="0" disallow="tram rail_urban rail rail_electric rail_fast ship" speed="6.58" length="9.18" shape="961.81,1804.77 964.34,1804.40 966.14,1803.34 967.23,1801.59 967.60,1799.15"/>
    </edge>
    <edge id=":1361300422_1" function="internal">
        <lane id=":1361300422_1_0" index="0" disallow="tram rail_urban rail rail_electric rail_fast ship" speed="6.41" length="9.04" shape="967.31,1813.59 967.04,1811.12 966.04,1809.36 964.31,1808.31 961.84,1807.97"/>
    </edge>
    <edge id=":1361300422_2" function="internal">
        <lane id=":1361300422_2_0" index="0" disallow="tram rail_urban rail rail_electric rail_fast ship" speed="27.78" length="14.55" shape="967.31,1813.59 967.60,1799.15"/>
        <lane id=":1361300422_2_1" index="1" disallow="tram rail_urban rail rail_electric rail_fast ship" speed="27.78" length="14.55" shape="970.51,1813.71 970.80,1799.16"/>
        <lane id=":1361300422_2_2" index="2" disallow="tram rail_urban rail rail_electric rail_fast ship" speed="27.78" length="14.55" shape="973.70,1813.82 974.00,1799.17"/>
    </edge>
    <edge id=":1429947965_0" function="internal">
        <lane id=":1429947965_0_0" index="0" disallow="tram rail_urban rail rail_electric rail_fast ship" speed="22.22" length="0.27" shape="343.49,1519.86 343.22,1519.82"/>
    </edge>
    <edge id=":1429947965_1" function="internal">
        <lane id=":1429947965_1_0" index="0" disallow="tram rail_urban rail rail_electric rail_fast ship" speed="3.65" length="2.34" shape="343.49,1519.86 342.44,1518.87 342.19,1518.01"/>
    </edge>
    <edge id=":1429947965_4" function="internal">
        <lane id=":1429947965_4_0" index="0" disallow="tram rail_urban rail rail_electric rail_fast ship" speed="3.65" length="2.34" shape="342.19,1518.01 342.72,1517.29 344.04,1516.71"/>
    </edge>
    <edge id=":1429947965_2" function="internal">
        <lane id=":1429947965_2_0" index="0" disallow="tram rail_urban rail rail_electric rail_fast ship" speed="22.22" length="0.31" shape="343.73,1516.66 344.04,1516.71"/>
    </edge>
    <edge id=":1429947965_3" function="internal">
        <lane id=":1429947965_3_0" index="0" disallow="tram rail_urban rail rail_electric rail_fast ship" speed="3.65" length="2.34" shape="343.73,1516.66 344.79,1517.64 345.06,1518.49"/>
    </edge>
    <edge id=":1429947965_5" function="internal">
        <lane id=":1429947965_5_0" index="0" disallow="tram rail_urban rail rail_electric rail_fast ship" speed="3.65" length="2.34" shape="345.06,1518.49 344.54,1519.22 343.22,1519.82"/>
    </edge>
    <edge id=":1650224089_0" function="internal">
        <lane id=":1650224089_0_0" index="0" disallow="tram rail_urban rail rail_electric rail_fast ship" speed="22.22" length="0.49" shape="121.04,2551.73 121.08,2552.38"/>
        <lane id=":1650224089_0_1" index="1" disallow="tram rail_urban rail rail_electric rail_fast ship" speed="22.22" length="0.49" shape="117.85,2551.94 117.88,2552.48"/>
        <lane id=":1650224089_0_2" index="2" disallow="tram rail_urban rail rail_electric rail_fast ship" speed="22.22" length="0.49" shape="114.66,2552.15 114.68,2552.58"/>
        <lane id=":1650224089_0_3" index="3" disallow="tram rail_urban rail rail_electric rail_fast ship" speed="22.22" length="0.49" shape="111.46,2552.37 111.48,2552.69"/>
    </edge>
    <edge id=":165738307_0" function="internal">
        <lane id=":165738307_0_0" index="0" disallow="tram rail_urban rail rail_electric rail_fast ship" speed="22.22" length="8.20" shape="316.36,2388.48 313.96,2388.66 312.35,2389.16 310.74,2389.67 308.34,2389.87"/>
        <lane id=":165738307_0_1" index="1" disallow="tram rail_urban rail rail_electric rail_fast ship" speed="22.22" length="8.20" shape="316.46,2385.28 314.05,2385.46 312.43,2385.96 310.82,2386.47 308.41,2386.67"/>
    </edge>
    <edge id=":1736610777_0" function="internal">
        <lane id=":1736610777_0_0" index="0" disallow="tram rail_urban rail rail_electric rail_fast ship" speed="27.78" length="7.79" shape="1492.39,644.49 1493.66,646.35 1494.25,647.83 1494.88,649.28 1496.28,651.02"/>
        <lane id=":1736610777_0_1" index="1" disallow="tram rail_urban rail rail_electric rail_fast ship" speed="27.78" length="7.79" shape="1489.96,646.57 1491.28,648.49 1491.90,650.01 1492.58,651.50 1494.03,653.29"/>
    </edge>
    <edge id=":1808532811_0" function="internal">
        <lane id=":1808532811_0_0" index="0" disallow="tram rail_urban rail rail_electric rail_fast ship" speed="27.78" length="8.20" shape="526.67,3302.56 526.48,3300.15 525.98,3298.53 525.48,3296.91 525.32,3294.50"/>
        <lane id=":1808532811_0_1" index="1" disallow="tram rail_urban rail rail_electric rail_fast ship" speed="27.78" length="8.20" shape="529.87,3302.65 529.68,3300.25 529.18,3298.63 528.68,3297.01 528.52,3294.62"/>
        <lane id=":1808532811_0_2" index="2" disallow="tram rail_urban rail rail_electric rail_fast ship" speed="27.78" length="8.20" shape="529.87,3302.65 530.18,3300.27 530.77,3298.69 531.38,3297.11 531.72,3294.74"/>
    </edge>
    <edge id=":1813996252_0" function="internal">
        <lane id=":1813996252_0_0" index="0" disallow="tram rail_urban rail rail_electric rail_fast ship" speed="22.22" length="0.30" shape="104.32,2691.15 104.30,2690.76"/>
        <lane id=":1813996252_0_1" index="1" disallow="tram rail_urban rail rail_electric rail_fast ship" speed="22.22" length="0.30" shape="107.51,2690.92 107.49,2690.59"/>
        <lane id=":1813996252_0_2" index="2" disallow="tram rail_urban rail rail_electric rail_fast ship" speed="22.22" length="0.30" shape="110.71,2690.70 110.69,2690.43"/>
        <lane id=":1813996252_0_3" index="3" disallow="tram rail_urban rail rail_electric rail_fast ship" speed="22.22" length="0.30" shape="113.90,2690.47 113.89,2690.26"/>
    </edge>
    <edge id=":1813996265_0" function="internal">
        <lane id=":1813996265_0_0" index="0" disallow="tram rail_urban rail rail_electric rail_fast ship" speed="22.22" length="0.29" shape="128.80,2702.41 128.82,2702.77"/>
        <lane id=":1813996265_0_1" index="1" disallow="tram rail_urban rail rail_electric rail_fast ship" speed="22.22" length="0.29" shape="125.60,2702.65 125.63,2702.96"/>
        <lane id=":1813996265_0_2" index="2" disallow="tram rail_urban rail rail_electric rail_fast ship" speed="22.22" length="0.29" shape="122.41,2702.88 122.43,2703.15"/>
        <lane id=":1813996265_0_3" index="3" disallow="tram rail_urban rail rail_electric rail_fast ship" speed="22.22" length="0.29" shape="119.22,2703.12 119.24,2703.34"/>
    </edge>
    <edge id=":1813996266_0" function="internal">
        <lane id=":1813996266_0_0" index="0" disallow="tram rail_urban rail rail_electric rail_fast ship" speed="22.22" length="0.30" shape="108.01,2742.64 107.98,2742.31"/>
        <lane id=":1813996266_0_1" index="1" disallow="tram rail_urban rail rail_electric rail_fast ship" speed="22.22" length="0.30" shape="111.20,2742.39 111.17,2742.09"/>
        <lane id=":1813996266_0_2" index="2" disallow="tram rail_urban rail rail_electric rail_fast ship" speed="22.22" length="0.30" shape="114.39,2742.14 114.37,2741.86"/>
        <lane id=":1813996266_0_3" index="3" disallow="tram rail_urban rail rail_electric rail_fast ship" speed="22.22" length="0.30" shape="117.58,2741.90 117.56,2741.63"/>
    </edge>
    <edge id=":1813996267_0" function="internal">
        <lane id=":1813996267_0_0" index="0" disallow="tram rail_urban rail rail_electric rail_fast ship" speed="22.22" length="0.30" shape="131.81,2753.56 131.83,2753.84"/>
        <lane id=":1813996267_0_1" index="1" disallow="tram rail_urban rail rail_electric rail_fast ship" speed="22.22" length="0.30" shape="128.62,2753.75 128.64,2754.04"/>
        <lane id=":1813996267_0_2" index="2" disallow="tram rail_urban rail rail_electric rail_fast ship" speed="22.22" length="0.30" shape="125.42,2753.93 125.44,2754.24"/>