<routes>
<vType accel="1.0" decel="4.5" id="standard_car" length="5.0" minGap="2.5" maxSpeed="25" sigma="0.5" />

<route id="route1" edges="htxdj_e7 htxdj_e6 htxdj_e5 htxdj_e4 htxdj_e3 htxdj_e3.94 htxdj_e1 -72631490#2 -72631490#2.115 -72631490#2.115.131 -72631490#1 -72631490#0"/>
<route id="route2" edges="72631490#1 72631490#2 htxdj_w1 htxdj_w2 htxdj_w2.141 htxdj_w3 htxdj_w4 htxdj_w5 htxdj_w6 htxdj_w7"/>
<route id="route3" edges="wjj_s1 wjj_s2 wjj_s3 wjj_s4 wjj_s5 wjj_s6 wjj_s7 wjj_s8 wjj_s9 wjj_s10"/>
<route id="route4" edges="wjj_n9 wjj_n8 wjj_n7 wjj_n6 wjj_n5 wjj_n4 wjj_n3 534224179#4 wjj_n1"/>
<route id="route5" edges="haxl_e8 haxl_e7 haxl_e6 haxl_e5 haxl_e4 haxl_e3"/>
<route id="route6" edges="haxl_w3 haxl_w4 haxl_w5 haxl_w6 haxl_w7 haxl_w8 haxl_w9 haxl_w10"/>
<route id="route7" edges="haxl_e8 haxl_e7 wjj_n5 wjj_n4 wjj_n3 534224179#4 wjj_n1"/>
<route id="route8" edges="haxl_e8 haxl_e7 wjj_s6 wjj_s7 wjj_s8 wjj_s9 wjj_s10"/>
<route id="route9" edges="haxl_w3 haxl_w4 haxl_w5 haxl_w6 wjj_s6 wjj_s7 wjj_s8 wjj_s9 wjj_s10"/>
<route id="route10" edges="haxl_w3 haxl_w4 haxl_w5 haxl_w6 wjj_s6 wjj_s7 wjj_s8 wjj_s9 wjj_s10"/>
<route id="route11" edges="wjj_s1 wjj_s2 wjj_s3 htxdj_e4 htxdj_e3 htxdj_e3.94 htxdj_e1 -72631490#2 -72631490#2.115 -72631490#2.115.131 -72631490#1 -72631490#0"/>
<route id="route12" edges="wjj_s1 wjj_s2 wjj_s3 htxdj_w5 htxdj_w6 htxdj_w7"/>
<route id="route13" edges="htxdj_e7 htxdj_e6 htxdj_e5 wjj_s4 wjj_s5 haxl_e6 haxl_e5 haxl_e4 haxl_e3"/>
<route id="route14" edges="htxdj_e7 htxdj_e6 173019247#0 173019251 173019259#1 wjj_s5 wjj_s6 wjj_s7 wjj_s8 wjj_s9 wjj_s10"/>
<route id="route15" edges="wjj_s1 wjj_s2 173019256#0 173019407#0 -173019406#0 htxdj_w6 htxdj_w7"/>
<route id="route16" edges="haxl_w3 haxl_w4 haxl_w5 htxdj_w3 173019244#0 173019244#1 173019244#2 173019244#3 534224179#4 wjj_n1"/>
<route id="route17" edges="haxl_e8 haxl_e7 wjj_n5 173019255#0 173019255#1 173019250#1 htxdj_e3 htxdj_e3.94 haxl_e5 haxl_e4 haxl_e3"/>

    <vehicle id="route5_0" type="standard_car" route="route5" depart="1.0" departLane="random" departSpeed="10" />
    <vehicle id="route2_1" type="standard_car" route="route2" depart="1.0" departLane="random" departSpeed="10" />
    <vehicle id="route6_2" type="standard_car" route="route6" depart="2.0" departLane="random" departSpeed="10" />
    <vehicle id="route17_3" type="standard_car" route="route17" depart="2.0" departLane="random" departSpeed="10" />
    <vehicle id="route7_4" type="standard_car" route="route7" depart="2.0" departLane="random" departSpeed="10" />
    <vehicle id="route9_5" type="standard_car" route="route9" depart="2.0" departLane="random" departSpeed="10" />
    <vehicle id="route5_6" type="standard_car" route="route5" depart="3.0" departLane="random" departSpeed="10" />
    <vehicle id="route11_7" type="standard_car" route="route11" depart="3.0" departLane="random" departSpeed="10" />
    <vehicle id="route11_8" type="standard_car" route="route11" depart="3.0" departLane="random" departSpeed="10" />
    <vehicle id="route4_9" type="standard_car" route="route4" depart="3.0" departLane="random" departSpeed="10" />
    <vehicle id="route6_10" type="standard_car" route="route6" depart="3.0" departLane="random" departSpeed="10" />
    <vehicle id="route10_11" type="standard_car" route="route10" depart="4.0" departLane="random" departSpeed="10" />
    <vehicle id="route9_12" type="standard_car" route="route9" depart="4.0" departLane="random" departSpeed="10" />
    <vehicle id="route9_13" type="standard_car" route="route9" depart="4.0" departLane="random" departSpeed="10" />
    <vehicle id="route11_14" type="standard_car" route="route11" depart="4.0" departLane="random" departSpeed="10" />
    <vehicle id="route2_15" type="standard_car" route="route2" depart="4.0" departLane="random" departSpeed="10" />
    <vehicle id="route15_16" type="standard_car" route="route15" depart="4.0" departLane="random" departSpeed="10" />
    <vehicle id="route6_17" type="standard_car" route="route6" depart="5.0" departLane="random" departSpeed="10" />
    <vehicle id="route17_18" type="standard_car" route="route17" depart="5.0" departLane="random" departSpeed="10" />
    <vehicle id="route4_19" type="standard_car" route="route4" depart="5.0" departLane="random" departSpeed="10" />
    <vehicle id="route8_20" type="standard_car" route="route8" depart="6.0" departLane="random" departSpeed="10" />
    <vehicle id="route2_21" type="standard_car" route="route2" depart="6.0" departLane="random" departSpeed="10" />
    <vehicle id="route9_22" type="standard_car" route="route9" depart="7.0" departLane="random" departSpeed="10" />
    <vehicle id="route1_23" type="standard_car" route="route1" depart="7.0" departLane="random" departSpeed="10" />
    <vehicle id="route6_24" type="standard_car" route="route6" depart="7.0" departLane="random" departSpeed="10" />
    <vehicle id="route16_25" type="standard_car" route="route16" depart="7.0" departLane="random" departSpeed="10" />
    <vehicle id="route7_26" type="standard_car" route="route7" depart="8.0" departLane="random" departSpeed="10" />
    <vehicle id="route16_27" type="standard_car" route="route16" depart="8.0" departLane="random" departSpeed="10" />
    <vehicle id="route6_28" type="standard_car" route="route6" depart="9.0" departLane="random" departSpeed="10" />
    <vehicle id="route10_29" type="standard_car" route="route10" depart="9.0" departLane="random" departSpeed="10" />
    <vehicle id="route17_30" type="standard_car" route="route17" depart="10.0" departLane="random" departSpeed="10" />
    <vehicle id="route17_31" type="standard_car" route="route17" depart="11.0" departLane="random" departSpeed="10" />
    <vehicle id="route12_32" type="standard_car" route="route12" depart="11.0" departLane="random" departSpeed="10" />
    <vehicle id="route15_33" type="standard_car" route="route15" depart="11.0" departLane="random" departSpeed="10" />
    <vehicle id="route6_34" type="standard_car" route="route6" depart="11.0" departLane="random" departSpeed="10" />
    <vehicle id="route16_35" type="standard_car" route="route16" depart="12.0" departLane="random" departSpeed="10" />
    <vehicle id="route14_36" type="standard_car" route="route14" depart="12.0" departLane="random" departSpeed="10" />
    <vehicle id="route12_37" type="standard_car" route="route12" depart="12.0" departLane="random" departSpeed="10" />
    <vehicle id="route12_38" type="standard_car" route="route12" depart="12.0" departLane="random" departSpeed="10" />
    <vehicle id="route2_39" type="standard_car" route="route2" depart="12.0" departLane="random" departSpeed="10" />
    <vehicle id="route8_40" type="standard_car" route="route8" depart="13.0" departLane="random" departSpeed="10" />
    <vehicle id="route17_41" type="standard_car" route="route17" depart="13.0" departLane="random" departSpeed="10" />
    <vehicle id="route8_42" type="standard_car" route="route8" depart="13.0" departLane="random" departSpeed="10" />
    <vehicle id="route16_43" type="standard_car" route="route16" depart="13.0" departLane="random" departSpeed="10" />
    <vehicle id="route1_44" type="standard_car" route="route1" depart="13.0" departLane="random" departSpeed="10" />
    <vehicle id="route5_45" type="standard_car" route="route5" depart="14.0" departLane="random" departSpeed="10" />
    <vehicle id="route3_46" type="standard_car" route="route3" depart="14.0" departLane="random" departSpeed="10" />
    <vehicle id="route9_47" type="standard_car" route="route9" depart="14.0" departLane="random" departSpeed="10" />
    <vehicle id="route11_48" type="standard_car" route="route11" depart="14.0" departLane="random" departSpeed="10" />
    <vehicle id="route6_49" type="standard_car" route="route6" depart="15.0" departLane="random" departSpeed="10" />
    <vehicle id="route7_50" type="standard_car" route="route7" depart="15.0" departLane="random" departSpeed="10" />
    <vehicle id="route7_51" type="standard_car" route="route7" depart="16.0" departLane="random" departSpeed="10" />
    <vehicle id="route5_52" type="standard_car" route="route5" depart="16.0" departLane="random" departSpeed="10" />
    <vehicle id="route2_53" type="standard_car" route="route2" depart="17.0" departLane="random" departSpeed="10" />
    <vehicle id="route5_54" type="standard_car" route="route5" depart="17.0" departLane="random" departSpeed="10" />
    <vehicle id="route6_55" type="standard_car" route="route6" depart="18.0" departLane="random" departSpeed="10" />
    <vehicle id="route6_56" type="standard_car" route="route6" depart="18.0" departLane="random" departSpeed="10" />
    <vehicle id="route7_57" type="standard_car" route="route7" depart="18.0" departLane="random" departSpeed="10" />
    <vehicle id="route4_58" type="standard_car" route="route4" depart="19.0" departLane="random" departSpeed="10" />
    <vehicle id="route16_59" type="standard_car" route="route16" depart="19.0" departLane="random" departSpeed="10" />
    <vehicle id="route10_60" type="standard_car" route="route10" depart="19.0" departLane="random" departSpeed="10" />
    <vehicle id="route5_61" type="standard_car" route="route5" depart="19.0" departLane="random" departSpeed="10" />
    <vehicle id="route3_62" type="standard_car" route="route3" depart="20.0" departLane="random" departSpeed="10" />
    <vehicle id="route4_63" type="standard_car" route="route4" depart="20.0" departLane="random" departSpeed="10" />
    <vehicle id="route14_64" type="standard_car" route="route14" depart="20.0" departLane="random" departSpeed="10" />
    <vehicle id="route12_65" type="standard_car" route="route12" depart="20.0" departLane="random" departSpeed="10" />
    <vehicle id="route14_66" type="standard_car" route="route14" depart="20.0" departLane="random" departSpeed="10" />
    <vehicle id="route5_67" type="standard_car" route="route5" depart="21.0" departLane="random" departSpeed="10" />
    <vehicle id="route7_68" type="standard_car" route="route7" depart="21.0" departLane="random" departSpeed="10" />
    <vehicle id="route16_69" type="standard_car" route="route16" depart="22.0" departLane="random" departSpeed="10" />
    <vehicle id="route3_70" type="standard_car" route="route3" depart="23.0" departLane="random" departSpeed="10" />
    <vehicle id="route11_71" type="standard_car" route="route11" depart="23.0" departLane="random" departSpeed="10" />
    <vehicle id="route6_72" type="standard_car" route="route6" depart="24.0" departLane="random" departSpeed="10" />
    <vehicle id="route5_73" type="standard_car" route="route5" depart="24.0" departLane="random" departSpeed="10" />
    <vehicle id="route5_74" type="standard_car" route="route5" depart="24.0" departLane="random" departSpeed="10" />
    <vehicle id="route16_75" type="standard_car" route="route16" depart="24.0" departLane="random" departSpeed="10" />
    <vehicle id="route3_76" type="standard_car" route="route3" depart="25.0" departLane="random" departSpeed="10" />
    <vehicle id="route12_77" type="standard_car" route="route12" depart="26.0" departLane="random" departSpeed="10" />
    <vehicle id="route3_78" type="standard_car" route="route3" depart="26.0" departLane="random" departSpeed="10" />
    <vehicle id="route2_79" type="standard_car" route="route2" depart="26.0" departLane="random" departSpeed="10" />
    <vehicle id="route15_80" type="standard_car" route="route15" depart="26.0" departLane="random" departSpeed="10" />
    <vehicle id="route17_81" type="standard_car" route="route17" depart="26.0" departLane="random" departSpeed="10" />
    <vehicle id="route12_82" type="standard_car" route="route12" depart="26.0" departLane="random" departSpeed="10" />
    <vehicle id="route2_83" type="standard_car" route="route2" depart="26.0" departLane="random" departSpeed="10" />
    <vehicle id="route2_84" type="standard_car" route="route2" depart="26.0" departLane="random" departSpeed="10" />
    <vehicle id="route14_85" type="standard_car" route="route14" depart="27.0" departLane="random" departSpeed="10" />
    <vehicle id="route7_86" type="standard_car" route="route7" depart="27.0" departLane="random" departSpeed="10" />
    <vehicle id="route14_87" type="standard_car" route="route14" depart="27.0" departLane="random" departSpeed="10" />
    <vehicle id="route7_88" type="standard_car" route="route7" depart="28.0" departLane="random" departSpeed="10" />
    <vehicle id="route17_89" type="standard_car" route="route17" depart="29.0" departLane="random" departSpeed="10" />
    <vehicle id="route4_90" type="standard_car" route="route4" depart="29.0" departLane="random" departSpeed="10" />
    <vehicle id="route15_91" type="standard_car" route="route15" depart="29.0" departLane="random" departSpeed="10" />
    <vehicle id="route3_92" type="standard_car" route="route3" depart="30.0" departLane="random" departSpeed="10" />
    <vehicle id="route6_93" type="standard_car" route="route6" depart="30.0" departLane="random" departSpeed="10" />
    <vehicle id="route8_94" type="standard_car" route="route8" depart="30.0" departLane="random" departSpeed="10" />
    <vehicle id="route16_95" type="standard_car" route="route16" depart="32.0" departLane="random" departSpeed="10" />
    <vehicle id="route15_96" type="standard_car" route="route15" depart="32.0" departLane="random" departSpeed="10" />
    <vehicle id="route4_97" type="standard_car" route="route4" depart="32.0" departLane="random" departSpeed="10" />
    <vehicle id="route8_98" type="standard_car" route="route8" depart="32.0" departLane="random" departSpeed="10" />
    <vehicle id="route8_99" type="standard_car" route="route8" depart="32.0" departLane="random" departSpeed="10" />
    <vehicle id="route7_100" type="standard_car" route="route7" depart="32.0" departLane="random" departSpeed="10" />
    <vehicle id="route12_101" type="standard_car" route="route12" depart="32.0" departLane="random" departSpeed="10" />
    <vehicle id="route4_102" type="standard_car" route="route4" depart="33.0" departLane="random" departSpeed="10" />
    <vehicle id="route14_103" type="standard_car" route="route14" depart="33.0" departLane="random" departSpeed="10" />
    <vehicle id="route5_104" type="standard_car" route="route5" depart="34.0" departLane="random" departSpeed="10" />
    <vehicle id="route7_105" type="standard_car" route="route7" depart="34.0" departLane="random" departSpeed="10" />
    <vehicle id="route12_106" type="standard_car" route="route12" depart="35.0" departLane="random" departSpeed="10" />
    <vehicle id="route15_107" type="standard_car" route="route15" depart="36.0" departLane="random" departSpeed="10" />
    <vehicle id="route13_108" type="standard_car" route="route13" depart="36.0" departLane="random" departSpeed="10" />
    <vehicle id="route4_109" type="standard_car" route="route4" depart="37.0" departLane="random" departSpeed="10" />
    <vehicle id="route6_110" type="standard_car" route="route6" depart="37.0" departLane="random" departSpeed="10" />
    <vehicle id="route8_111" type="standard_car" route="route8" depart="37.0" departLane="random" departSpeed="10" />
    <vehicle id="route15_112" type="standard_car" route="route15" depart="37.0" departLane="random" departSpeed="10" />
    <vehicle id="route12_113" type="standard_car" route="route12" depart="37.0" departLane="random" departSpeed="10" />
    <vehicle id="route10_114" type="standard_car" route="route10" depart="37.0" departLane="random" departSpeed="10" />
    <vehicle id="route12_115" type="standard_car" route="route12" depart="38.0" departLane="random" departSpeed="10" />
    <vehicle id="route17_116" type="standard_car" route="route17" depart="39.0" departLane="random" departSpeed="10" />
    <vehicle id="route8_117" type="standard_car" route="route8" depart="39.0" departLane="random" departSpeed="10" />
    <vehicle id="route2_118" type="standard_car" route="route2" depart="40.0" departLane="random" departSpeed="10" />
    <vehicle id="route1_119" type="standard_car" route="route1" depart="41.0" departLane="random" departSpeed="10" />
    <vehicle id="route10_120" type="standard_car" route="route10" depart="41.0" departLane="random" departSpeed="10" />
    <vehicle id="route9_121" type="standard_car" route="route9" depart="42.0" departLane="random" departSpeed="10" />
    <vehicle id="route12_122" type="standard_car" route="route12" depart="42.0" departLane="random" departSpeed="10" />
    <vehicle id="route16_123" type="standard_car" route="route16" depart="42.0" departLane="random" departSpeed="10" />
    <vehicle id="route4_124" type="standard_car" route="route4" depart="42.0" departLane="random" departSpeed="10" />
    <vehicle id="route11_125" type="standard_car" route="route11" depart="43.0" departLane="random" departSpeed="10" />
    <vehicle id="route15_126" type="standard_car" route="route15" depart="43.0" departLane="random" departSpeed="10" />
    <vehicle id="route16_127" type="standard_car" route="route16" depart="43.0" departLane="random" departSpeed="10" />
    <vehicle id="route2_128" type="standard_car" route="route2" depart="44.0" departLane="random" departSpeed="10" />
    <vehicle id="route13_129" type="standard_car" route="route13" depart="45.0" departLane="random" departSpeed="10" />
    <vehicle id="route12_130" type="standard_car" route="route12" depart="45.0" departLane="random" departSpeed="10" />
    <vehicle id="route8_131" type="standard_car" route="route8" depart="45.0" departLane="random" departSpeed="10" />
    <vehicle id="route12_132" type="standard_car" route="route12" depart="45.0" departLane="random" departSpeed="10" />
    <vehicle id="route14_133" type="standard_car" route="route14" depart="46.0" departLane="random" departSpeed="10" />
    <vehicle id="route3_134" type="standard_car" route="route3" depart="46.0" departLane="random" departSpeed="10" />
    <vehicle id="route2_135" type="standard_car" route="route2" depart="46.0" departLane="random" departSpeed="10" />
    <vehicle id="route17_136" type="standard_car" route="route17" depart="47.0" departLane="random" departSpeed="10" />
    <vehicle id="route2_137" type="standard_car" route="route2" depart="47.0" departLane="random" departSpeed="10" />
    <vehicle id="route17_138" type="standard_car" route="route17" depart="47.0" departLane="random" departSpeed="10" />
    <vehicle id="route2_139" type="standard_car" route="route2" depart="48.0" departLane="random" departSpeed="10" />
    <vehicle id="route2_140" type="standard_car" route="route2" depart="48.0" departLane="random" departSpeed="10" />
    <vehicle id="route13_141" type="standard_car" route="route13" depart="48.0" departLane="random" departSpeed="10" />
    <vehicle id="route7_142" type="standard_car" route="route7" depart="48.0" departLane="random" departSpeed="10" />
    <vehicle id="route9_143" type="standard_car" route="route9" depart="48.0" departLane="random" departSpeed="10" />
    <vehicle id="route9_144" type="standard_car" route="route9" depart="48.0" departLane="random" departSpeed="10" />
    <vehicle id="route14_145" type="standard_car" route="route14" depart="49.0" departLane="random" departSpeed="10" />
    <vehicle id="route11_146" type="standard_car" route="route11" depart="49.0" departLane="random" departSpeed="10" />
    <vehicle id="route1_147" type="standard_car" route="route1" depart="49.0" departLane="random" departSpeed="10" />
    <vehicle id="route5_148" type="standard_car" route="route5" depart="49.0" departLane="random" departSpeed="10" />
    <vehicle id="route1_149" type="standard_car" route="route1" depart="50.0" departLane="random" departSpeed="10" />
    <vehicle id="route6_150" type="standard_car" route="route6" depart="50.0" departLane="random" departSpeed="10" />
    <vehicle id="route16_151" type="standard_car" route="route16" depart="50.0" departLane="random" departSpeed="10" />
    <vehicle id="route16_152" type="standard_car" route="route16" depart="50.0" departLane="random" departSpeed="10" />
    <vehicle id="route13_153" type="standard_car" route="route13" depart="51.0" departLane="random" departSpeed="10" />
    <vehicle id="route14_154" type="standard_car" route="route14" depart="51.0" departLane="random" departSpeed="10" />
    <vehicle id="route11_155" type="standard_car" route="route11" depart="51.0" departLane="random" departSpeed="10" />
    <vehicle id="route10_156" type="standard_car" route="route10" depart="51.0" departLane="random" departSpeed="10" />
    <vehicle id="route17_157" type="standard_car" route="route17" depart="51.0" departLane="random" departSpeed="10" />
    <vehicle id="route7_158" type="standard_car" route="route7" depart="52.0" departLane="random" departSpeed="10" />
    <vehicle id="route4_159" type="standard_car" route="route4" depart="52.0" departLane="random" departSpeed="10" />
    <vehicle id="route17_160" type="standard_car" route="route17" depart="52.0" departLane="random" departSpeed="10" />
    <vehicle id="route1_161" type="standard_car" route="route1" depart="53.0" departLane="random" departSpeed="10" />
    <vehicle id="route2_162" type="standard_car" route="route2" depart="53.0" departLane="random" departSpeed="10" />
    <vehicle id="route1_163" type="standard_car" route="route1" depart="53.0" departLane="random" departSpeed="10" />
    <vehicle id="route12_164" type="standard_car" route="route12" depart="54.0" departLane="random" departSpeed="10" />
    <vehicle id="route16_165" type="standard_car" route="route16" depart="54.0" departLane="random" departSpeed="10" />
    <vehicle id="route16_166" type="standard_car" route="route16" depart="54.0" departLane="random" departSpeed="10" />
    <vehicle id="route8_167" type="standard_car" route="route8" depart="54.0" departLane="random" departSpeed="10" />
    <vehicle id="route13_168" type="standard_car" route="route13" depart="55.0" departLane="random" departSpeed="10" />
    <vehicle id="route14_169" type="standard_car" route="route14" depart="55.0" departLane="random" departSpeed="10" />
    <vehicle id="route15_170" type="standard_car" route="route15" depart="55.0" departLane="random" departSpeed="10" />
    <vehicle id="route15_171" type="standard_car" route="route15" depart="56.0" departLane="random" departSpeed="10" />
    <vehicle id="route8_172" type="standard_car" route="route8" depart="56.0" departLane="random" departSpeed="10" />
    <vehicle id="route13_173" type="standard_car" route="route13" depart="56.0" departLane="random" departSpeed="10" />
    <vehicle id="route12_174" type="standard_car" route="route12" depart="56.0" departLane="random" departSpeed="10" />
    <vehicle id="route13_175" type="standard_car" route="route13" depart="57.0" departLane="random" departSpeed="10" />
    <vehicle id="route16_176" type="standard_car" route="route16" depart="57.0" departLane="random" departSpeed="10" />
    <vehicle id="route12_177" type="standard_car" route="route12" depart="57.0" departLane="random" departSpeed="10" />
    <vehicle id="route14_178" type="standard_car" route="route14" depart="57.0" departLane="random" departSpeed="10" />
    <vehicle id="route15_179" type="standard_car" route="route15" depart="58.0" departLane="random" departSpeed="10" />
    <vehicle id="route5_180" type="standard_car" route="route5" depart="58.0" departLane="random" departSpeed="10" />
    <vehicle id="route2_181" type="standard_car" route="route2" depart="58.0" departLane="random" departSpeed="10" />
    <vehicle id="route17_182" type="standard_car" route="route17" depart="58.0" departLane="random" departSpeed="10" />
    <vehicle id="route10_183" type="standard_car" route="route10" depart="59.0" departLane="random" departSpeed="10" />
    <vehicle id="route17_184" type="standard_car" route="route17" depart="59.0" departLane="random" departSpeed="10" />
    <vehicle id="route3_185" type="standard_car" route="route3" depart="59.0" departLane="random" departSpeed="10" />
    <vehicle id="route16_186" type="standard_car" route="route16" depart="59.0" departLane="random" departSpeed="10" />
    <vehicle id="route7_187" type="standard_car" route="route7" depart="59.0" departLane="random" departSpeed="10" />
    <vehicle id="route1_188" type="standard_car" route="route1" depart="60.0" departLane="random" departSpeed="10" />
    <vehicle id="route7_189" type="standard_car" route="route7" depart="60.0" departLane="random" departSpeed="10" />
    <vehicle id="route13_190" type="standard_car" route="route13" depart="60.0" departLane="random" departSpeed="10" />
    <vehicle id="route16_191" type="standard_car" route="route16" depart="60.0" departLane="random" departSpeed="10" />
    <vehicle id="route11_192" type="standard_car" route="route11" depart="61.0" departLane="random" departSpeed="10" />
    <vehicle id="route3_193" type="standard_car" route="route3" depart="61.0" departLane="random" departSpeed="10" />
    <vehicle id="route9_194" type="standard_car" route="route9" depart="61.0" departLane="random" departSpeed="10" />
    <vehicle id="route7_195" type="standard_car" route="route7" depart="62.0" departLane="random" departSpeed="10" />
    <vehicle id="route3_196" type="standard_car" route="route3" depart="62.0" departLane="random" departSpeed="10" />
    <vehicle id="route1_197" type="standard_car" route="route1" depart="62.0" departLane="random" departSpeed="10" />
    <vehicle id="route11_198" type="standard_car" route="route11" depart="63.0" departLane="random" departSpeed="10" />
    <vehicle id="route13_199" type="standard_car" route="route13" depart="64.0" departLane="random" departSpeed="10" />
    <vehicle id="route4_200" type="standard_car" route="route4" depart="64.0" departLane="random" departSpeed="10" />
    <vehicle id="route10_201" type="standard_car" route="route10" depart="64.0" departLane="random" departSpeed="10" />
    <vehicle id="route8_202" type="standard_car" route="route8" depart="65.0" departLane="random" departSpeed="10" />
    <vehicle id="route17_203" type="standard_car" route="route17" depart="66.0" departLane="random" departSpeed="10" />
    <vehicle id="route11_204" type="standard_car" route="route11" depart="67.0" departLane="random" departSpeed="10" />
    <vehicle id="route5_205" type="standard_car" route="route5" depart="67.0" departLane="random" departSpeed="10" />
    <vehicle id="route4_206" type="standard_car" route="route4" depart="67.0" departLane="random" departSpeed="10" />
    <vehicle id="route6_207" type="standard_car" route="route6" depart="68.0" departLane="random" departSpeed="10" />
    <vehicle id="route7_208" type="standard_car" route="route7" depart="68.0" departLane="random" departSpeed="10" />
    <vehicle id="route12_209" type="standard_car" route="route12" depart="69.0" departLane="random" departSpeed="10" />
    <vehicle id="route3_210" type="standard_car" route="route3" depart="69.0" departLane="random" departSpeed="10" />
    <vehicle id="route8_211" type="standard_car" route="route8" depart="69.0" departLane="random" departSpeed="10" />
    <vehicle id="route10_212" type="standard_car" route="route10" depart="70.0" departLane="random" departSpeed="10" />
    <vehicle id="route1_213" type="standard_car" route="route1" depart="70.0" departLane="random" departSpeed="10" />
    <vehicle id="route17_214" type="standard_car" route="route17" depart="71.0" departLane="random" departSpeed="10" />
    <vehicle id="route9_215" type="standard_car" route="route9" depart="71.0" departLane="random" departSpeed="10" />
    <vehicle id="route16_216" type="standard_car" route="route16" depart="71.0" departLane="random" departSpeed="10" />
    <vehicle id="route17_217" type="standard_car" route="route17" depart="72.0" departLane="random" departSpeed="10" />
    <vehicle id="route11_218" type="standard_car" route="route11" depart="72.0" departLane="random" departSpeed="10" />
    <vehicle id="route4_219" type="standard_car" route="route4" depart="72.0" departLane="random" departSpeed="10" />
    <vehicle id="route8_220" type="standard_car" route="route8" depart="72.0" departLane="random" departSpeed="10" />
    <vehicle id="route10_221" type="standard_car" route="route10" depart="73.0" departLane="random" departSpeed="10" />
    <vehicle id="route4_222" type="standard_car" route="route4" depart="74.0" departLane="random" departSpeed="10" />
    <vehicle id="route8_223" type="standard_car" route="route8" depart="74.0" departLane="random" departSpeed="10" />
    <vehicle id="route17_224" type="standard_car" route="route17" depart="74.0" departLane="random" departSpeed="10" />
    <vehicle id="route3_225" type="standard_car" route="route3" depart="74.0" departLane="random" departSpeed="10" />
    <vehicle id="route5_226" type="standard_car" route="route5" depart="75.0" departLane="random" departSpeed="10" />
    <vehicle id="route5_227" type="standard_car" route="route5" depart="75.0" departLane="random" departSpeed="10" />
    <vehicle id="route7_228" type="standard_car" route="route7" depart="75.0" departLane="random" departSpeed="10" />
    <vehicle id="route1_229" type="standard_car" route="route1" depart="75.0" departLane="random" departSpeed="10" />
    <vehicle id="route6_230" type="standard_car" route="route6" depart="75.0" departLane="random" departSpeed="10" />
    <vehicle id="route15_231" type="standard_car" route="route15" depart="76.0" departLane="random" departSpeed="10" />
    <vehicle id="route9_232" type="standard_car" route="route9" depart="76.0" departLane="random" departSpeed="10" />
    <vehicle id="route3_233" type="standard_car" route="route3" depart="76.0" departLane="random" departSpeed="10" />
    <vehicle id="route16_234" type="standard_car" route="route16" depart="76.0" departLane="random" departSpeed="10" />
    <vehicle id="route17_235" type="standard_car" route="route17" depart="77.0" departLane="random" departSpeed="10" />