<routes>
<vType accel="1.0" decel="4.5" id="standard_car" length="5.0" minGap="2.5" maxSpeed="25" sigma="0.5" />

<route id="route1" edges="htxdj_e7 htxdj_e6 htxdj_e5 htxdj_e4 htxdj_e3 htxdj_e3.94 htxdj_e1 -72631490#2 -72631490#2.115 -72631490#2.115.131 -72631490#1 -72631490#0"/>
<route id="route2" edges="72631490#1 72631490#2 htxdj_w1 htxdj_w2 htxdj_w2.141 htxdj_w3 htxdj_w4 htxdj_w5 htxdj_w6 htxdj_w7"/>
<route id="route3" edges="wjj_s1 wjj_s2 wjj_s3 wjj_s4 wjj_s5 wjj_s6 wjj_s7 wjj_s8 wjj_s9 wjj_s10"/>
<route id="route4" edges="wjj_n9 wjj_n8 wjj_n7 wjj_n6 wjj_n5 wjj_n4 wjj_n3 534224179#4 wjj_n1"/>
<route id="route5" edges="haxl_e8 haxl_e7 haxl_e6 haxl_e5 haxl_e4 haxl_e3"/>
<route id="route6" edges="haxl_w3 haxl_w4 haxl_w5 haxl_w6 haxl_w7 haxl_w8 haxl_w9 haxl_w10"/>
<route id="route7" edges="haxl_e8 haxl_e7 wjj_n5 wjj_n4 wjj_n3 534224179#4 wjj_n1"/>
<route id="route8" edges="haxl_e8 haxl_e7 wjj_s6 wjj_s7 wjj_s8 wjj_s9 wjj_s10"/>
<route id="route9" edges="haxl_w3 haxl_w4 haxl_w5 haxl_w6 wjj_s6 wjj_s7 wjj_s8 wjj_s9 wjj_s10"/>
<route id="route10" edges="haxl_w3 haxl_w4 haxl_w5 haxl_w6 wjj_s6 wjj_s7 wjj_s8 wjj_s9 wjj_s10"/>
<route id="route11" edges="wjj_s1 wjj_s2 wjj_s3 htxdj_e4 htxdj_e3 htxdj_e3.94 htxdj_e1 -72631490#2 -72631490#2.115 -72631490#2.115.131 -72631490#1 -72631490#0"/>
<route id="route12" edges="wjj_s1 wjj_s2 wjj_s3 htxdj_w5 htxdj_w6 htxdj_w7"/>
<route id="route13" edges="htxdj_e7 htxdj_e6 htxdj_e5 wjj_s4 wjj_s5 haxl_e6 haxl_e5 haxl_e4 haxl_e3"/>
<route id="route14" edges="htxdj_e7 htxdj_e6 173019247#0 173019251 173019259#1 wjj_s5 wjj_s6 wjj_s7 wjj_s8 wjj_s9 wjj_s10"/>
<route id="route15" edges="wjj_s1 wjj_s2 173019256#0 173019407#0 -173019406#0 htxdj_w6 htxdj_w7"/>
<route id="route16" edges="haxl_w3 haxl_w4 haxl_w5 htxdj_w3 173019244#0 173019244#1 173019244#2 173019244#3 534224179#4 wjj_n1"/>
<route id="route17" edges="haxl_e8 haxl_e7 wjj_n5 173019255#0 173019255#1 173019250#1 htxdj_e3 htxdj_e3.94 haxl_e5 haxl_e4 haxl_e3"/>

    <vehicle id="route1_0" type="standard_car" route="route1" depart="0.0" departLane="random" departSpeed="10" />
    <vehicle id="route7_1" type="standard_car" route="route7" depart="7.0" departLane="random" departSpeed="10" />
    <vehicle id="route2_2" type="standard_car" route="route2" depart="9.0" departLane="random" departSpeed="10" />
    <vehicle id="route13_3" type="standard_car" route="route13" depart="10.0" departLane="random" departSpeed="10" />
    <vehicle id="route10_4" type="standard_car" route="route10" depart="13.0" departLane="random" departSpeed="10" />
    <vehicle id="route12_5" type="standard_car" route="route12" depart="13.0" departLane="random" departSpeed="10" />
    <vehicle id="route4_6" type="standard_car" route="route4" depart="15.0" departLane="random" departSpeed="10" />
    <vehicle id="route10_7" type="standard_car" route="route10" depart="16.0" departLane="random" departSpeed="10" />
    <vehicle id="route9_8" type="standard_car" route="route9" depart="16.0" departLane="random" departSpeed="10" />
    <vehicle id="route9_9" type="standard_car" route="route9" depart="23.0" departLane="random" departSpeed="10" />
    <vehicle id="route10_10" type="standard_car" route="route10" depart="23.0" departLane="random" departSpeed="10" />
    <vehicle id="route14_11" type="standard_car" route="route14" depart="24.0" departLane="random" departSpeed="10" />
    <vehicle id="route16_12" type="standard_car" route="route16" depart="25.0" departLane="random" departSpeed="10" />
    <vehicle id="route16_13" type="standard_car" route="route16" depart="26.0" departLane="random" departSpeed="10" />
    <vehicle id="route5_14" type="standard_car" route="route5" depart="27.0" departLane="random" departSpeed="10" />
    <vehicle id="route2_15" type="standard_car" route="route2" depart="27.0" departLane="random" departSpeed="10" />
    <vehicle id="route6_16" type="standard_car" route="route6" depart="27.0" departLane="random" departSpeed="10" />
    <vehicle id="route11_17" type="standard_car" route="route11" depart="28.0" departLane="random" departSpeed="10" />
    <vehicle id="route1_18" type="standard_car" route="route1" depart="32.0" departLane="random" departSpeed="10" />
    <vehicle id="route7_19" type="standard_car" route="route7" depart="33.0" departLane="random" departSpeed="10" />
    <vehicle id="route4_20" type="standard_car" route="route4" depart="33.0" departLane="random" departSpeed="10" />
    <vehicle id="route17_21" type="standard_car" route="route17" depart="34.0" departLane="random" departSpeed="10" />
    <vehicle id="route4_22" type="standard_car" route="route4" depart="34.0" departLane="random" departSpeed="10" />
    <vehicle id="route7_23" type="standard_car" route="route7" depart="35.0" departLane="random" departSpeed="10" />
    <vehicle id="route10_24" type="standard_car" route="route10" depart="36.0" departLane="random" departSpeed="10" />
    <vehicle id="route6_25" type="standard_car" route="route6" depart="36.0" departLane="random" departSpeed="10" />
    <vehicle id="route12_26" type="standard_car" route="route12" depart="36.0" departLane="random" departSpeed="10" />
    <vehicle id="route12_27" type="standard_car" route="route12" depart="37.0" departLane="random" departSpeed="10" />
    <vehicle id="route4_28" type="standard_car" route="route4" depart="37.0" departLane="random" departSpeed="10" />
    <vehicle id="route15_29" type="standard_car" route="route15" depart="39.0" departLane="random" departSpeed="10" />
    <vehicle id="route15_30" type="standard_car" route="route15" depart="40.0" departLane="random" departSpeed="10" />
    <vehicle id="route17_31" type="standard_car" route="route17" depart="41.0" departLane="random" departSpeed="10" />
    <vehicle id="route4_32" type="standard_car" route="route4" depart="41.0" departLane="random" departSpeed="10" />
    <vehicle id="route7_33" type="standard_car" route="route7" depart="42.0" departLane="random" departSpeed="10" />
    <vehicle id="route12_34" type="standard_car" route="route12" depart="42.0" departLane="random" departSpeed="10" />
    <vehicle id="route7_35" type="standard_car" route="route7" depart="42.0" departLane="random" departSpeed="10" />
    <vehicle id="route3_36" type="standard_car" route="route3" depart="42.0" departLane="random" departSpeed="10" />
    <vehicle id="route1_37" type="standard_car" route="route1" depart="43.0" departLane="random" departSpeed="10" />
    <vehicle id="route2_38" type="standard_car" route="route2" depart="43.0" departLane="random" departSpeed="10" />
    <vehicle id="route5_39" type="standard_car" route="route5" depart="43.0" departLane="random" departSpeed="10" />
    <vehicle id="route14_40" type="standard_car" route="route14" depart="44.0" departLane="random" departSpeed="10" />
    <vehicle id="route9_41" type="standard_car" route="route9" depart="45.0" departLane="random" departSpeed="10" />
    <vehicle id="route8_42" type="standard_car" route="route8" depart="45.0" departLane="random" departSpeed="10" />
    <vehicle id="route9_43" type="standard_car" route="route9" depart="45.0" departLane="random" departSpeed="10" />
    <vehicle id="route6_44" type="standard_car" route="route6" depart="45.0" departLane="random" departSpeed="10" />
    <vehicle id="route2_45" type="standard_car" route="route2" depart="46.0" departLane="random" departSpeed="10" />
    <vehicle id="route11_46" type="standard_car" route="route11" depart="46.0" departLane="random" departSpeed="10" />
    <vehicle id="route12_47" type="standard_car" route="route12" depart="46.0" departLane="random" departSpeed="10" />
    <vehicle id="route8_48" type="standard_car" route="route8" depart="46.0" departLane="random" departSpeed="10" />
    <vehicle id="route11_49" type="standard_car" route="route11" depart="47.0" departLane="random" departSpeed="10" />
    <vehicle id="route8_50" type="standard_car" route="route8" depart="47.0" departLane="random" departSpeed="10" />
    <vehicle id="route13_51" type="standard_car" route="route13" depart="47.0" departLane="random" departSpeed="10" />
    <vehicle id="route14_52" type="standard_car" route="route14" depart="47.0" departLane="random" departSpeed="10" />
    <vehicle id="route11_53" type="standard_car" route="route11" depart="48.0" departLane="random" departSpeed="10" />
    <vehicle id="route4_54" type="standard_car" route="route4" depart="48.0" departLane="random" departSpeed="10" />
    <vehicle id="route6_55" type="standard_car" route="route6" depart="48.0" departLane="random" departSpeed="10" />
    <vehicle id="route2_56" type="standard_car" route="route2" depart="48.0" departLane="random" departSpeed="10" />
    <vehicle id="route13_57" type="standard_car" route="route13" depart="48.0" departLane="random" departSpeed="10" />
    <vehicle id="route8_58" type="standard_car" route="route8" depart="48.0" departLane="random" departSpeed="10" />
    <vehicle id="route6_59" type="standard_car" route="route6" depart="49.0" departLane="random" departSpeed="10" />
    <vehicle id="route3_60" type="standard_car" route="route3" depart="49.0" departLane="random" departSpeed="10" />
    <vehicle id="route17_61" type="standard_car" route="route17" depart="49.0" departLane="random" departSpeed="10" />
    <vehicle id="route14_62" type="standard_car" route="route14" depart="49.0" departLane="random" departSpeed="10" />
    <vehicle id="route9_63" type="standard_car" route="route9" depart="50.0" departLane="random" departSpeed="10" />
    <vehicle id="route8_64" type="standard_car" route="route8" depart="50.0" departLane="random" departSpeed="10" />
    <vehicle id="route2_65" type="standard_car" route="route2" depart="50.0" departLane="random" departSpeed="10" />
    <vehicle id="route2_66" type="standard_car" route="route2" depart="50.0" departLane="random" departSpeed="10" />
    <vehicle id="route2_67" type="standard_car" route="route2" depart="50.0" departLane="random" departSpeed="10" />
    <vehicle id="route10_68" type="standard_car" route="route10" depart="51.0" departLane="random" departSpeed="10" />
    <vehicle id="route5_69" type="standard_car" route="route5" depart="51.0" departLane="random" departSpeed="10" />
    <vehicle id="route7_70" type="standard_car" route="route7" depart="52.0" departLane="random" departSpeed="10" />
    <vehicle id="route2_71" type="standard_car" route="route2" depart="52.0" departLane="random" departSpeed="10" />
    <vehicle id="route11_72" type="standard_car" route="route11" depart="53.0" departLane="random" departSpeed="10" />
    <vehicle id="route16_73" type="standard_car" route="route16" depart="53.0" departLane="random" departSpeed="10" />
    <vehicle id="route4_74" type="standard_car" route="route4" depart="53.0" departLane="random" departSpeed="10" />
    <vehicle id="route7_75" type="standard_car" route="route7" depart="53.0" departLane="random" departSpeed="10" />
    <vehicle id="route1_76" type="standard_car" route="route1" depart="53.0" departLane="random" departSpeed="10" />
    <vehicle id="route15_77" type="standard_car" route="route15" depart="54.0" departLane="random" departSpeed="10" />
    <vehicle id="route4_78" type="standard_car" route="route4" depart="54.0" departLane="random" departSpeed="10" />
    <vehicle id="route6_79" type="standard_car" route="route6" depart="54.0" departLane="random" departSpeed="10" />
    <vehicle id="route8_80" type="standard_car" route="route8" depart="54.0" departLane="random" departSpeed="10" />
    <vehicle id="route17_81" type="standard_car" route="route17" depart="54.0" departLane="random" departSpeed="10" />
    <vehicle id="route12_82" type="standard_car" route="route12" depart="55.0" departLane="random" departSpeed="10" />
    <vehicle id="route12_83" type="standard_car" route="route12" depart="55.0" departLane="random" departSpeed="10" />
    <vehicle id="route13_84" type="standard_car" route="route13" depart="55.0" departLane="random" departSpeed="10" />
    <vehicle id="route3_85" type="standard_car" route="route3" depart="56.0" departLane="random" departSpeed="10" />
    <vehicle id="route6_86" type="standard_car" route="route6" depart="56.0" departLane="random" departSpeed="10" />
    <vehicle id="route15_87" type="standard_car" route="route15" depart="56.0" departLane="random" departSpeed="10" />
    <vehicle id="route6_88" type="standard_car" route="route6" depart="56.0" departLane="random" departSpeed="10" />
    <vehicle id="route15_89" type="standard_car" route="route15" depart="56.0" departLane="random" departSpeed="10" />
    <vehicle id="route10_90" type="standard_car" route="route10" depart="57.0" departLane="random" departSpeed="10" />
    <vehicle id="route15_91" type="standard_car" route="route15" depart="57.0" departLane="random" departSpeed="10" />
    <vehicle id="route13_92" type="standard_car" route="route13" depart="57.0" departLane="random" departSpeed="10" />
    <vehicle id="route3_93" type="standard_car" route="route3" depart="57.0" departLane="random" departSpeed="10" />
    <vehicle id="route4_94" type="standard_car" route="route4" depart="57.0" departLane="random" departSpeed="10" />
    <vehicle id="route1_95" type="standard_car" route="route1" depart="57.0" departLane="random" departSpeed="10" />
    <vehicle id="route13_96" type="standard_car" route="route13" depart="58.0" departLane="random" departSpeed="10" />
    <vehicle id="route13_97" type="standard_car" route="route13" depart="58.0" departLane="random" departSpeed="10" />
    <vehicle id="route13_98" type="standard_car" route="route13" depart="58.0" departLane="random" departSpeed="10" />
    <vehicle id="route1_99" type="standard_car" route="route1" depart="58.0" departLane="random" departSpeed="10" />
    <vehicle id="route3_100" type="standard_car" route="route3" depart="58.0" departLane="random" departSpeed="10" />
    <vehicle id="route5_101" type="standard_car" route="route5" depart="58.0" departLane="random" departSpeed="10" />
    <vehicle id="route6_102" type="standard_car" route="route6" depart="59.0" departLane="random" departSpeed="10" />
    <vehicle id="route7_103" type="standard_car" route="route7" depart="59.0" departLane="random" departSpeed="10" />
    <vehicle id="route16_104" type="standard_car" route="route16" depart="59.0" departLane="random" departSpeed="10" />
    <vehicle id="route2_105" type="standard_car" route="route2" depart="59.0" departLane="random" departSpeed="10" />
    <vehicle id="route16_106" type="standard_car" route="route16" depart="59.0" departLane="random" departSpeed="10" />
    <vehicle id="route10_107" type="standard_car" route="route10" depart="60.0" departLane="random" departSpeed="10" />
    <vehicle id="route14_108" type="standard_car" route="route14" depart="60.0" departLane="random" departSpeed="10" />
    <vehicle id="route13_109" type="standard_car" route="route13" depart="61.0" departLane="random" departSpeed="10" />
    <vehicle id="route14_110" type="standard_car" route="route14" depart="61.0" departLane="random" departSpeed="10" />
    <vehicle id="route16_111" type="standard_car" route="route16" depart="61.0" departLane="random" departSpeed="10" />
    <vehicle id="route3_112" type="standard_car" route="route3" depart="61.0" departLane="random" departSpeed="10" />
    <vehicle id="route12_113" type="standard_car" route="route12" depart="61.0" departLane="random" departSpeed="10" />
    <vehicle id="route10_114" type="standard_car" route="route10" depart="61.0" departLane="random" departSpeed="10" />
    <vehicle id="route9_115" type="standard_car" route="route9" depart="61.0" departLane="random" departSpeed="10" />
    <vehicle id="route16_116" type="standard_car" route="route16" depart="62.0" departLane="random" departSpeed="10" />
    <vehicle id="route5_117" type="standard_car" route="route5" depart="62.0" departLane="random" departSpeed="10" />
    <vehicle id="route11_118" type="standard_car" route="route11" depart="62.0" departLane="random" departSpeed="10" />
    <vehicle id="route7_119" type="standard_car" route="route7" depart="62.0" departLane="random" departSpeed="10" />
    <vehicle id="route13_120" type="standard_car" route="route13" depart="62.0" departLane="random" departSpeed="10" />
    <vehicle id="route9_121" type="standard_car" route="route9" depart="62.0" departLane="random" departSpeed="10" />
    <vehicle id="route9_122" type="standard_car" route="route9" depart="62.0" departLane="random" departSpeed="10" />
    <vehicle id="route9_123" type="standard_car" route="route9" depart="62.0" departLane="random" departSpeed="10" />
    <vehicle id="route13_124" type="standard_car" route="route13" depart="63.0" departLane="random" departSpeed="10" />
    <vehicle id="route6_125" type="standard_car" route="route6" depart="63.0" departLane="random" departSpeed="10" />
    <vehicle id="route3_126" type="standard_car" route="route3" depart="63.0" departLane="random" departSpeed="10" />
    <vehicle id="route6_127" type="standard_car" route="route6" depart="63.0" departLane="random" departSpeed="10" />
    <vehicle id="route6_128" type="standard_car" route="route6" depart="63.0" departLane="random" departSpeed="10" />
    <vehicle id="route5_129" type="standard_car" route="route5" depart="63.0" departLane="random" departSpeed="10" />
    <vehicle id="route11_130" type="standard_car" route="route11" depart="63.0" departLane="random" departSpeed="10" />
    <vehicle id="route12_131" type="standard_car" route="route12" depart="63.0" departLane="random" departSpeed="10" />
    <vehicle id="route9_132" type="standard_car" route="route9" depart="64.0" departLane="random" departSpeed="10" />
    <vehicle id="route4_133" type="standard_car" route="route4" depart="64.0" departLane="random" departSpeed="10" />
    <vehicle id="route17_134" type="standard_car" route="route17" depart="64.0" departLane="random" departSpeed="10" />
    <vehicle id="route12_135" type="standard_car" route="route12" depart="64.0" departLane="random" departSpeed="10" />
    <vehicle id="route16_136" type="standard_car" route="route16" depart="64.0" departLane="random" departSpeed="10" />
    <vehicle id="route4_137" type="standard_car" route="route4" depart="64.0" departLane="random" departSpeed="10" />
    <vehicle id="route5_138" type="standard_car" route="route5" depart="65.0" departLane="random" departSpeed="10" />
    <vehicle id="route8_139" type="standard_car" route="route8" depart="65.0" departLane="random" departSpeed="10" />
    <vehicle id="route4_140" type="standard_car" route="route4" depart="65.0" departLane="random" departSpeed="10" />
    <vehicle id="route12_141" type="standard_car" route="route12" depart="65.0" departLane="random" departSpeed="10" />
    <vehicle id="route16_142" type="standard_car" route="route16" depart="65.0" departLane="random" departSpeed="10" />
    <vehicle id="route14_143" type="standard_car" route="route14" depart="66.0" departLane="random" departSpeed="10" />
    <vehicle id="route16_144" type="standard_car" route="route16" depart="66.0" departLane="random" departSpeed="10" />
    <vehicle id="route2_145" type="standard_car" route="route2" depart="66.0" departLane="random" departSpeed="10" />
    <vehicle id="route12_146" type="standard_car" route="route12" depart="66.0" departLane="random" departSpeed="10" />
    <vehicle id="route6_147" type="standard_car" route="route6" depart="66.0" departLane="random" departSpeed="10" />
    <vehicle id="route5_148" type="standard_car" route="route5" depart="66.0" departLane="random" departSpeed="10" />
    <vehicle id="route1_149" type="standard_car" route="route1" depart="66.0" departLane="random" departSpeed="10" />
    <vehicle id="route6_150" type="standard_car" route="route6" depart="67.0" departLane="random" departSpeed="10" />
    <vehicle id="route12_151" type="standard_car" route="route12" depart="67.0" departLane="random" departSpeed="10" />
    <vehicle id="route14_152" type="standard_car" route="route14" depart="67.0" departLane="random" departSpeed="10" />
    <vehicle id="route8_153" type="standard_car" route="route8" depart="67.0" departLane="random" departSpeed="10" />
    <vehicle id="route9_154" type="standard_car" route="route9" depart="67.0" departLane="random" departSpeed="10" />
    <vehicle id="route12_155" type="standard_car" route="route12" depart="67.0" departLane="random" departSpeed="10" />
    <vehicle id="route2_156" type="standard_car" route="route2" depart="68.0" departLane="random" departSpeed="10" />
    <vehicle id="route15_157" type="standard_car" route="route15" depart="68.0" departLane="random" departSpeed="10" />
    <vehicle id="route7_158" type="standard_car" route="route7" depart="68.0" departLane="random" departSpeed="10" />
    <vehicle id="route12_159" type="standard_car" route="route12" depart="68.0" departLane="random" departSpeed="10" />
    <vehicle id="route11_160" type="standard_car" route="route11" depart="68.0" departLane="random" departSpeed="10" />
    <vehicle id="route1_161" type="standard_car" route="route1" depart="68.0" departLane="random" departSpeed="10" />
    <vehicle id="route9_162" type="standard_car" route="route9" depart="69.0" departLane="random" departSpeed="10" />
    <vehicle id="route7_163" type="standard_car" route="route7" depart="69.0" departLane="random" departSpeed="10" />
    <vehicle id="route12_164" type="standard_car" route="route12" depart="69.0" departLane="random" departSpeed="10" />
    <vehicle id="route4_165" type="standard_car" route="route4" depart="69.0" departLane="random" departSpeed="10" />
    <vehicle id="route5_166" type="standard_car" route="route5" depart="69.0" departLane="random" departSpeed="10" />
    <vehicle id="route5_167" type="standard_car" route="route5" depart="69.0" departLane="random" departSpeed="10" />
    <vehicle id="route16_168" type="standard_car" route="route16" depart="69.0" departLane="random" departSpeed="10" />
    <vehicle id="route9_169" type="standard_car" route="route9" depart="70.0" departLane="random" departSpeed="10" />
    <vehicle id="route10_170" type="standard_car" route="route10" depart="70.0" departLane="random" departSpeed="10" />
    <vehicle id="route8_171" type="standard_car" route="route8" depart="70.0" departLane="random" departSpeed="10" />
    <vehicle id="route4_172" type="standard_car" route="route4" depart="70.0" departLane="random" departSpeed="10" />
    <vehicle id="route10_173" type="standard_car" route="route10" depart="70.0" departLane="random" departSpeed="10" />
    <vehicle id="route16_174" type="standard_car" route="route16" depart="70.0" departLane="random" departSpeed="10" />
    <vehicle id="route17_175" type="standard_car" route="route17" depart="70.0" departLane="random" departSpeed="10" />
    <vehicle id="route8_176" type="standard_car" route="route8" depart="70.0" departLane="random" departSpeed="10" />
    <vehicle id="route4_177" type="standard_car" route="route4" depart="70.0" departLane="random" departSpeed="10" />
    <vehicle id="route8_178" type="standard_car" route="route8" depart="70.0" departLane="random" departSpeed="10" />
    <vehicle id="route9_179" type="standard_car" route="route9" depart="71.0" departLane="random" departSpeed="10" />
    <vehicle id="route6_180" type="standard_car" route="route6" depart="71.0" departLane="random" departSpeed="10" />
    <vehicle id="route6_181" type="standard_car" route="route6" depart="71.0" departLane="random" departSpeed="10" />
    <vehicle id="route2_182" type="standard_car" route="route2" depart="71.0" departLane="random" departSpeed="10" />
    <vehicle id="route15_183" type="standard_car" route="route15" depart="71.0" departLane="random" departSpeed="10" />
    <vehicle id="route7_184" type="standard_car" route="route7" depart="71.0" departLane="random" departSpeed="10" />
    <vehicle id="route9_185" type="standard_car" route="route9" depart="71.0" departLane="random" departSpeed="10" />
    <vehicle id="route2_186" type="standard_car" route="route2" depart="71.0" departLane="random" departSpeed="10" />
    <vehicle id="route3_187" type="standard_car" route="route3" depart="72.0" departLane="random" departSpeed="10" />
    <vehicle id="route17_188" type="standard_car" route="route17" depart="72.0" departLane="random" departSpeed="10" />
    <vehicle id="route3_189" type="standard_car" route="route3" depart="72.0" departLane="random" departSpeed="10" />
    <vehicle id="route12_190" type="standard_car" route="route12" depart="72.0" departLane="random" departSpeed="10" />
    <vehicle id="route11_191" type="standard_car" route="route11" depart="72.0" departLane="random" departSpeed="10" />
    <vehicle id="route5_192" type="standard_car" route="route5" depart="72.0" departLane="random" departSpeed="10" />
    <vehicle id="route15_193" type="standard_car" route="route15" depart="72.0" departLane="random" departSpeed="10" />
    <vehicle id="route8_194" type="standard_car" route="route8" depart="72.0" departLane="random" departSpeed="10" />
    <vehicle id="route6_195" type="standard_car" route="route6" depart="72.0" departLane="random" departSpeed="10" />
    <vehicle id="route15_196" type="standard_car" route="route15" depart="72.0" departLane="random" departSpeed="10" />
    <vehicle id="route15_197" type="standard_car" route="route15" depart="72.0" departLane="random" departSpeed="10" />
    <vehicle id="route16_198" type="standard_car" route="route16" depart="73.0" departLane="random" departSpeed="10" />
    <vehicle id="route1_199" type="standard_car" route="route1" depart="73.0" departLane="random" departSpeed="10" />
    <vehicle id="route7_200" type="standard_car" route="route7" depart="73.0" departLane="random" departSpeed="10" />
    <vehicle id="route10_201" type="standard_car" route="route10" depart="73.0" departLane="random" departSpeed="10" />
    <vehicle id="route2_202" type="standard_car" route="route2" depart="73.0" departLane="random" departSpeed="10" />
    <vehicle id="route12_203" type="standard_car" route="route12" depart="73.0" departLane="random" departSpeed="10" />
    <vehicle id="route7_204" type="standard_car" route="route7" depart="73.0" departLane="random" departSpeed="10" />
    <vehicle id="route9_205" type="standard_car" route="route9" depart="73.0" departLane="random" departSpeed="10" />
    <vehicle id="route5_206" type="standard_car" route="route5" depart="73.0" departLane="random" departSpeed="10" />
    <vehicle id="route13_207" type="standard_car" route="route13" depart="73.0" departLane="random" departSpeed="10" />
    <vehicle id="route4_208" type="standard_car" route="route4" depart="74.0" departLane="random" departSpeed="10" />
    <vehicle id="route6_209" type="standard_car" route="route6" depart="74.0" departLane="random" departSpeed="10" />
    <vehicle id="route13_210" type="standard_car" route="route13" depart="74.0" departLane="random" departSpeed="10" />
    <vehicle id="route1_211" type="standard_car" route="route1" depart="74.0" departLane="random" departSpeed="10" />
    <vehicle id="route2_212" type="standard_car" route="route2" depart="74.0" departLane="random" departSpeed="10" />
    <vehicle id="route14_213" type="standard_car" route="route14" depart="74.0" departLane="random" departSpeed="10" />
    <vehicle id="route17_214" type="standard_car" route="route17" depart="74.0" departLane="random" departSpeed="10" />
    <vehicle id="route12_215" type="standard_car" route="route12" depart="74.0" departLane="random" departSpeed="10" />
    <vehicle id="route15_216" type="standard_car" route="route15" depart="74.0" departLane="random" departSpeed="10" />
    <vehicle id="route14_217" type="standard_car" route="route14" depart="75.0" departLane="random" departSpeed="10" />
    <vehicle id="route9_218" type="standard_car" route="route9" depart="75.0" departLane="random" departSpeed="10" />
    <vehicle id="route4_219" type="standard_car" route="route4" depart="75.0" departLane="random" departSpeed="10" />
    <vehicle id="route10_220" type="standard_car" route="route10" depart="75.0" departLane="random" departSpeed="10" />
    <vehicle id="route6_221" type="standard_car" route="route6" depart="75.0" departLane="random" departSpeed="10" />
    <vehicle id="route12_222" type="standard_car" route="route12" depart="75.0" departLane="random" departSpeed="10" />
    <vehicle id="route14_223" type="standard_car" route="route14" depart="75.0" departLane="random" departSpeed="10" />
    <vehicle id="route10_224" type="standard_car" route="route10" depart="75.0" departLane="random" departSpeed="10" />
    <vehicle id="route14_225" type="standard_car" route="route14" depart="75.0" departLane="random" departSpeed="10" />
    <vehicle id="route14_226" type="standard_car" route="route14" depart="75.0" departLane="random" departSpeed="10" />
    <vehicle id="route17_227" type="standard_car" route="route17" depart="75.0" departLane="random" departSpeed="10" />
    <vehicle id="route14_228" type="standard_car" route="route14" depart="75.0" departLane="random" departSpeed="10" />
    <vehicle id="route8_229" type="standard_car" route="route8" depart="76.0" departLane="random" departSpeed="10" />
    <vehicle id="route5_230" type="standard_car" route="route5" depart="76.0" departLane="random" departSpeed="10" />
    <vehicle id="route12_231" type="standard_car" route="route12" depart="76.0" departLane="random" departSpeed="10" />
    <vehicle id="route16_232" type="standard_car" route="route16" depart="76.0" departLane="random" departSpeed="10" />
    <vehicle id="route9_233" type="standard_car" route="route9" depart="76.0" departLane="random" departSpeed="10" />
    <vehicle id="route7_234" type="standard_car" route="route7" depart="76.0" departLane="random" departSpeed="10" />
    <vehicle id="route8_235" type="standard_car" route="route8" depart="76.0" departLane="random" departSpeed="10" />